Clear

New Circuit.N  bus1=sourcebus_22000 pu=1.0 basekV=22.0

Redirect Transformers.dss
Redirect New_linecode.dss
Redirect new_line.txt
Redirect N_loadshape.txt
Redirect new_load_data.txt
Redirect neutral_to_ground.txt

Set Voltagebases=[0.4, 0.41500000000000004, 22.0]

Calcvoltagebases
set maxcontroli = 2000

Solve mode=daily stepsize=0.5h number=48





