New Loadshape.LoadProfileP1 npts=48 interval=0.5 mult=[1.697 0.983 0.926 0.914 0.951 0.926 1.012 0.941 0.865 0.975 0.963 0.886 1.015 0.958 1.039 0.928 0.913 2.602 2.325 2.898 2.607 2.410 2.331 2.269 2.523 2.474 2.603 2.208 2.502 2.151 2.121 2.072 2.136 2.595 2.359 2.352 2.421 2.385 2.805 2.934 2.729 2.198 2.250 2.131 2.172 2.189 2.058 1.043]
New Loadshape.LoadProfileP2 npts=48 interval=0.5 mult=[2.073 2.435 2.541 2.850 2.794 1.785 0.126 0.138 0.152 0.190 1.134 0.111 0.095 0.160 0.104 0.125 0.127 0.101 0.153 0.101 0.158 1.550 3.798 3.488 2.859 2.297 2.608 2.365 2.457 2.232 2.626 2.582 2.705 3.232 2.802 2.685 3.043 2.714 2.733 2.528 2.534 2.390 2.709 2.544 2.532 2.124 0.209 0.158]
New Loadshape.LoadProfileP3 npts=48 interval=0.5 mult=[1.098 1.129 1.169 1.165 1.164 1.134 1.158 1.141 1.129 1.178 1.243 2.038 2.594 2.689 2.364 0.916 2.500 2.248 0.925 0.637 0.580 0.591 2.649 2.575 1.617 1.594 1.835 3.058 2.260 2.243 3.038 1.460 1.736 2.745 1.786 1.297 0.990 1.218 1.730 1.273 1.382 1.667 1.139 1.065 1.817 1.755 3.652 3.127]
New Loadshape.LoadProfileP4 npts=48 interval=0.5 mult=[0.488 1.149 0.508 1.067 0.685 1.014 0.702 0.853 0.904 0.619 0.993 0.615 0.995 1.140 1.067 1.651 2.687 2.439 2.175 2.233 1.183 0.246 0.143 0.096 0.123 0.073 0.120 0.110 0.074 0.127 0.076 0.116 2.493 3.402 3.677 3.719 3.595 3.829 3.782 3.901 4.092 2.433 2.087 2.049 2.093 2.090 2.093 1.746]
New Loadshape.LoadProfileP5 npts=48 interval=0.5 mult=[0.924 0.771 0.109 0.138 0.088 0.149 0.520 0.477 0.083 0.132 0.095 0.111 0.867 0.094 0.132 0.687 0.155 0.146 2.496 2.795 3.060 2.643 1.578 1.589 2.164 1.748 1.494 1.638 2.396 2.246 2.460 1.758 2.608 2.909 3.385 1.475 1.553 2.675 3.126 2.996 3.183 3.053 2.755 1.423 0.209 0.157 0.167 0.969]
New Loadshape.LoadProfileP6 npts=48 interval=0.5 mult=[0.582 0.520 0.491 0.455 0.420 0.444 0.510 0.481 0.607 0.417 0.382 0.486 0.442 0.382 0.996 1.617 1.941 2.014 1.946 1.847 1.554 1.772 1.843 1.897 2.010 1.042 0.945 0.831 1.065 2.279 2.331 1.302 0.984 1.901 2.444 1.656 1.605 2.270 2.882 2.500 2.085 1.767 1.714 1.814 1.113 0.485 0.546 0.660]
New Loadshape.LoadProfileP7 npts=48 interval=0.5 mult=[3.522 2.452 2.467 2.436 1.868 0.912 0.623 0.591 0.615 0.162 0.128 0.281 0.088 0.118 0.113 0.092 0.102 0.108 1.636 1.963 1.692 1.902 1.960 1.490 1.661 1.429 1.727 2.002 1.465 1.297 1.219 1.090 1.421 1.280 1.060 1.329 1.250 1.613 1.564 1.215 1.547 1.221 0.952 1.158 0.900 1.287 1.359 0.154]
New Loadshape.LoadProfileP8 npts=48 interval=0.5 mult=[1.067 0.116 0.145 0.084 0.133 0.090 0.127 0.112 0.578 0.627 0.134 0.106 0.118 0.116 0.107 0.198 0.454 0.670 3.387 3.487 3.024 1.504 1.829 1.900 1.698 0.796 1.637 2.829 1.242 0.637 0.617 0.655 1.221 0.810 1.047 2.321 2.203 2.808 2.436 1.707 1.616 1.530 0.972 0.897 0.396 2.193 2.048 2.118]
New Loadshape.LoadProfileP9 npts=48 interval=0.5 mult=[2.283 0.232 0.266 0.093 0.175 0.209 0.107 0.241 0.194 0.041 0.311 1.307 0.031 1.124 1.681 1.569 1.591 2.414 1.429 1.468 3.193 2.388 2.505 2.332 3.071 1.891 2.219 1.655 1.051 1.109 1.129 1.258 1.114 1.317 1.754 1.445 1.458 1.520 1.981 1.368 0.348 0.438 0.100 0.170 0.369 0.094 0.114 2.123]
New Loadshape.LoadProfileP10 npts=48 interval=0.5 mult=[0.169 0.286 0.181 0.206 0.214 0.133 0.196 0.174 0.121 0.225 0.265 1.207 1.486 2.331 1.598 1.588 0.998 1.394 2.196 3.246 2.901 1.591 0.930 0.770 0.692 0.916 0.922 1.547 1.130 0.436 2.301 2.083 2.050 2.059 2.641 2.125 1.612 0.774 0.823 0.795 0.774 0.765 0.763 2.261 1.876 1.398 0.139 0.226]
New Loadshape.LoadProfileP11 npts=48 interval=0.5 mult=[3.217 3.097 2.886 2.830 2.086 0.212 0.221 0.199 0.224 0.193 0.252 0.192 0.213 0.375 0.496 0.907 0.680 0.816 1.642 1.679 1.255 0.858 0.832 1.049 1.172 0.750 1.037 1.364 0.857 0.837 0.944 0.966 1.238 1.887 1.676 1.754 1.993 1.065 1.069 0.961 1.183 0.650 1.092 0.613 0.482 0.544 1.329 3.434]
New Loadshape.LoadProfileP12 npts=48 interval=0.5 mult=[0.143 0.112 0.122 0.116 0.108 0.137 0.107 0.103 0.123 0.114 0.165 0.157 0.143 0.293 0.666 0.956 1.429 2.324 1.710 0.549 0.791 2.090 1.768 2.346 2.657 1.833 1.826 1.657 1.840 1.701 1.740 1.659 1.909 2.117 2.188 3.231 2.886 2.309 1.992 1.559 1.329 1.354 1.328 0.902 0.392 0.080 0.107 0.082]
New Loadshape.LoadProfileP13 npts=48 interval=0.5 mult=[1.207 1.007 1.283 1.034 0.195 0.180 0.139 0.139 0.140 0.135 0.134 0.121 0.128 0.132 0.147 0.372 0.267 0.219 2.139 3.743 2.596 2.872 1.479 1.690 1.619 2.048 2.288 3.421 2.514 1.518 1.656 1.546 1.612 1.675 1.628 1.203 1.217 1.288 1.381 1.366 1.158 1.404 1.236 1.234 0.252 0.139 0.138 0.133]
New Loadshape.LoadProfileP14 npts=48 interval=0.5 mult=[0.060 0.056 0.027 0.054 0.056 0.020 0.057 0.044 0.031 0.055 0.023 0.050 0.045 0.026 0.267 0.350 0.174 0.099 0.105 0.112 1.829 3.428 3.314 3.290 3.927 3.038 3.069 3.112 2.726 2.734 2.899 2.872 2.824 0.813 0.393 0.256 0.635 2.207 2.550 2.251 1.953 1.622 0.091 0.140 0.106 0.074 0.063 0.064]
New Loadshape.LoadProfileP15 npts=48 interval=0.5 mult=[0.088 0.096 0.054 0.518 2.746 2.595 2.183 1.838 1.429 1.315 1.220 1.325 1.221 1.175 1.135 1.243 1.334 1.389 1.512 1.586 2.066 1.327 1.086 0.830 0.399 0.336 0.243 1.052 2.177 1.967 2.004 2.556 2.267 1.265 1.198 0.833 1.383 1.385 1.518 0.849 0.177 0.113 0.128 0.088 0.100 0.100 0.092 0.074]
New Loadshape.LoadProfileP16 npts=48 interval=0.5 mult=[0.169 1.395 2.572 2.621 2.064 0.163 0.180 0.164 0.166 0.176 0.164 0.165 0.567 0.813 1.569 2.051 1.804 1.847 1.334 1.428 0.998 0.876 0.382 0.416 0.397 0.172 0.364 0.505 0.521 0.657 1.529 1.713 2.110 2.120 1.523 0.712 0.650 0.676 0.649 0.642 0.655 1.638 2.529 2.442 2.103 1.962 1.808 0.777]
New Loadshape.LoadProfileP17 npts=48 interval=0.5 mult=[0.142 0.234 0.193 0.126 0.145 0.180 0.208 0.181 0.124 0.119 0.234 0.187 0.112 0.149 0.238 0.314 0.250 0.221 0.461 0.583 0.367 0.632 2.383 2.477 2.357 1.739 1.583 1.463 1.625 1.454 1.495 2.290 1.975 3.091 2.361 1.842 1.638 1.467 1.524 1.858 1.573 1.475 1.430 1.426 1.570 1.414 1.407 1.469]
New Loadshape.LoadProfileP18 npts=48 interval=0.5 mult=[3.152 1.809 0.659 0.667 0.511 0.616 0.613 0.620 0.484 0.630 0.483 0.623 1.838 0.621 0.677 0.674 1.006 1.284 0.632 0.356 0.380 0.483 0.571 0.741 0.810 0.416 0.777 0.721 0.667 0.840 1.141 0.659 0.829 0.842 1.255 1.217 1.098 1.269 1.878 1.088 0.782 1.320 0.933 0.993 3.251 3.163 2.753 2.737]
New Loadshape.LoadProfileP19 npts=48 interval=0.5 mult=[2.694 2.688 2.686 2.759 2.788 2.743 2.729 0.247 0.118 0.095 0.058 0.122 0.104 0.070 0.141 0.215 0.099 0.116 0.163 0.450 0.681 0.702 1.126 0.777 1.782 0.782 0.449 0.546 0.274 0.562 0.400 0.760 1.505 1.615 1.718 1.820 1.744 1.714 1.861 1.735 1.777 1.921 2.709 0.578 0.268 0.225 0.148 0.100]
New Loadshape.LoadProfileP20 npts=48 interval=0.5 mult=[0.206 0.650 0.213 0.369 0.507 0.281 0.519 0.319 0.256 0.600 0.250 0.200 0.644 0.231 0.694 0.726 1.719 0.894 0.481 0.857 1.044 1.663 1.225 0.882 0.707 0.950 0.750 1.694 1.150 1.138 0.869 0.600 0.862 1.000 2.787 1.588 1.463 1.188 1.906 2.631 2.506 1.869 0.838 2.738 1.669 1.613 1.494 1.531]
New Loadshape.LoadProfileP21 npts=48 interval=0.5 mult=[2.711 1.795 0.663 0.609 0.103 0.099 0.135 0.122 0.085 0.084 0.133 1.302 0.082 0.082 0.080 1.479 1.615 1.600 1.865 1.623 1.554 1.696 1.305 1.393 1.250 1.367 1.700 1.452 1.318 1.274 1.272 1.281 1.168 1.227 1.201 1.449 1.328 1.224 1.249 1.102 1.096 0.410 0.198 0.181 0.162 0.125 2.799 2.740]
New Loadshape.LoadProfileP22 npts=48 interval=0.5 mult=[0.560 0.552 0.561 1.300 0.517 0.552 0.527 1.221 0.584 0.551 0.551 0.515 1.246 0.083 0.106 0.084 1.644 2.761 2.115 1.832 2.033 1.466 1.388 1.914 1.168 2.217 2.434 1.250 1.481 0.560 0.764 0.072 1.457 1.121 1.113 1.318 1.205 1.418 1.153 1.019 1.172 0.924 0.831 0.569 0.108 0.062 1.760 0.486]
New Loadshape.LoadProfileP23 npts=48 interval=0.5 mult=[0.525 0.425 0.450 0.419 0.406 0.831 0.644 1.000 0.456 0.456 0.438 0.350 0.056 0.406 0.381 0.506 0.138 0.144 0.081 0.238 1.419 1.200 1.256 1.313 0.900 1.013 1.119 0.925 0.894 0.863 1.025 2.431 2.725 2.169 1.688 2.500 2.394 2.806 3.038 1.513 1.638 1.244 1.331 1.106 0.869 0.506 0.544 0.475]
New Loadshape.LoadProfileP24 npts=48 interval=0.5 mult=[2.450 2.470 2.485 2.445 2.521 1.500 0.053 0.107 0.072 0.060 0.099 0.065 0.094 0.071 0.058 2.601 0.950 0.902 0.991 0.931 2.025 1.525 1.435 1.421 1.296 1.190 1.079 1.087 2.219 0.947 1.050 1.113 0.967 1.110 1.073 0.688 1.741 0.499 0.484 1.646 0.489 0.430 0.493 0.518 0.264 1.137 0.073 0.106]
New Loadshape.LoadProfileP25 npts=48 interval=0.5 mult=[0.701 0.719 0.725 0.733 0.758 0.745 0.739 0.734 0.728 0.731 0.770 0.806 0.742 0.751 0.751 0.611 0.918 1.027 1.094 0.945 1.082 1.383 1.299 1.014 0.869 0.932 0.881 1.631 1.540 0.693 0.623 0.721 1.886 2.374 2.107 2.128 2.033 1.843 1.024 1.104 0.990 1.378 1.001 0.971 0.546 0.374 0.348 0.496]
New Loadshape.LoadProfileP26 npts=48 interval=0.5 mult=[2.438 2.430 2.735 2.780 2.401 1.909 0.204 0.241 0.222 0.202 1.261 0.257 0.329 0.425 0.592 0.735 0.541 0.513 0.478 0.904 1.106 1.024 1.020 1.626 0.941 0.941 0.836 0.887 0.738 0.709 0.778 0.961 1.361 1.310 1.188 1.006 0.912 0.700 0.615 0.704 0.550 0.488 0.717 0.522 0.458 0.439 1.380 2.586]
New Loadshape.LoadProfileP27 npts=48 interval=0.5 mult=[0.322 0.296 0.279 0.242 0.275 0.250 0.250 0.244 0.670 0.812 0.839 0.838 0.456 0.207 0.194 0.218 0.213 0.249 0.309 0.351 0.392 0.287 1.130 1.544 0.441 1.192 1.842 0.683 0.670 0.580 2.382 2.601 3.958 3.804 1.422 1.476 1.442 1.729 0.895 0.688 0.722 0.693 0.767 2.456 2.254 2.284 1.627 0.422]
New Loadshape.LoadProfileP28 npts=48 interval=0.5 mult=[0.768 0.661 0.758 0.686 0.811 0.630 0.769 0.862 0.724 0.698 0.831 0.655 1.091 1.049 1.083 1.199 1.169 1.135 2.000 1.799 1.845 1.556 1.023 1.323 1.698 1.020 1.036 0.882 1.252 1.255 0.705 0.528 0.700 0.351 0.361 0.316 0.382 0.331 1.508 1.758 1.120 1.134 1.095 0.995 1.021 1.323 0.823 0.835]
New Loadshape.LoadProfileP29 npts=48 interval=0.5 mult=[4.138 3.582 2.727 2.839 2.701 1.266 0.136 0.161 0.137 0.162 1.164 0.178 0.145 0.221 0.199 0.238 0.215 0.425 0.228 0.167 0.259 0.429 0.514 0.925 0.405 0.557 0.412 0.422 1.621 1.803 0.949 0.927 1.551 1.427 1.078 0.821 1.143 1.529 0.843 0.813 0.898 0.871 0.878 0.838 0.924 0.702 0.166 2.705]
New Loadshape.LoadProfileP30 npts=48 interval=0.5 mult=[2.478 2.485 2.456 0.696 0.119 0.120 0.122 0.116 0.124 0.113 0.406 0.991 0.131 0.127 0.171 0.206 0.171 0.427 1.810 1.412 0.229 0.272 0.753 1.293 1.206 1.650 1.787 0.341 0.319 0.737 0.459 1.655 1.470 1.472 1.497 0.764 1.174 1.554 0.609 0.581 0.501 0.597 2.674 3.869 2.238 0.285 0.757 1.196]
New Loadshape.LoadProfileP31 npts=48 interval=0.5 mult=[1.957 0.831 0.894 1.782 0.631 0.081 0.063 0.056 0.063 0.056 0.044 0.594 0.362 0.050 0.056 0.056 1.288 1.863 2.938 3.344 2.807 1.250 1.656 0.594 0.600 0.994 2.137 1.188 0.700 0.650 0.638 1.363 0.669 0.588 0.625 1.369 1.106 0.713 0.688 0.681 0.719 0.713 0.725 0.406 2.625 2.182 1.013 0.069]
New Loadshape.LoadProfileP32 npts=48 interval=0.5 mult=[0.362 0.369 0.375 0.431 0.469 0.431 0.413 0.438 0.425 0.425 0.819 0.744 0.731 0.725 0.800 0.413 0.475 0.437 0.438 0.613 1.569 1.113 0.725 0.844 0.963 0.994 0.813 0.781 0.863 1.019 1.294 1.656 1.925 1.806 1.400 1.325 1.919 1.738 1.731 1.675 1.394 1.188 1.138 1.094 1.563 1.794 0.706 0.981]
New Loadshape.LoadProfileP33 npts=48 interval=0.5 mult=[0.114 0.140 0.121 0.159 0.129 0.323 0.834 0.790 0.819 0.799 0.275 0.111 0.150 0.125 0.129 0.150 0.119 0.284 2.298 1.581 0.718 0.708 0.453 1.015 0.160 1.250 0.754 2.213 3.764 1.036 1.078 0.956 1.386 1.261 1.166 3.073 3.331 2.984 0.774 0.524 0.290 0.261 1.681 2.479 2.420 0.764 0.184 0.101]
New Loadshape.LoadProfileP34 npts=48 interval=0.5 mult=[1.894 1.844 1.169 0.088 0.106 0.106 0.081 0.094 1.019 0.751 0.088 0.088 0.075 0.094 0.100 0.131 1.500 0.269 0.138 0.106 0.550 2.076 0.381 0.331 1.632 1.069 0.325 0.969 1.606 1.644 3.325 2.062 2.094 1.875 1.731 1.794 1.894 1.500 1.325 1.581 1.331 1.356 1.331 0.969 0.513 0.363 0.194 0.081]
New Loadshape.LoadProfileP35 npts=48 interval=0.5 mult=[0.824 0.234 0.209 0.581 0.253 0.228 0.191 0.435 0.228 0.253 0.511 0.178 0.253 0.661 0.122 0.197 1.134 1.685 1.034 1.034 2.629 2.000 0.707 0.097 0.528 0.091 0.698 0.103 0.091 0.097 0.370 0.091 0.097 1.212 1.517 2.609 3.950 2.943 1.925 1.341 2.231 2.053 3.315 2.204 1.207 0.207 0.184 0.776]
New Loadshape.LoadProfileP36 npts=48 interval=0.5 mult=[0.211 0.213 0.229 0.205 0.218 0.211 0.207 0.227 0.209 0.217 0.243 0.237 0.227 0.245 0.226 0.298 0.299 0.518 0.496 0.663 0.459 1.742 1.930 0.984 0.752 0.618 0.876 1.938 2.007 2.737 2.724 1.325 1.367 2.278 2.966 2.264 2.053 2.092 1.419 1.326 1.549 0.955 0.958 0.983 0.380 0.399 0.203 0.235]
New Loadshape.LoadProfileP37 npts=48 interval=0.5 mult=[1.187 1.214 0.573 0.517 0.330 0.295 0.183 0.338 0.244 0.173 0.328 0.315 0.190 0.246 0.189 0.327 0.372 0.753 0.338 0.475 0.557 0.969 2.196 1.341 2.275 2.914 1.513 0.821 1.037 1.151 1.368 0.938 0.876 0.819 1.832 1.961 2.290 1.200 1.400 0.816 0.877 1.149 0.956 1.117 1.104 1.076 0.917 1.046]
New Loadshape.LoadProfileP38 npts=48 interval=0.5 mult=[1.252 0.411 0.180 0.238 0.159 0.181 0.199 0.201 0.182 0.211 0.167 0.249 0.156 0.248 0.143 0.889 1.811 1.521 1.597 1.097 1.164 0.837 0.727 0.542 0.560 0.658 0.479 1.278 1.262 0.644 0.841 1.089 0.795 1.380 1.229 1.422 1.587 1.459 1.074 1.219 1.756 2.043 2.211 1.195 1.788 1.723 1.937 0.631]
New Loadshape.LoadProfileP39 npts=48 interval=0.5 mult=[2.225 2.800 2.282 0.163 1.176 0.113 0.188 0.150 0.163 0.150 0.188 0.100 0.957 0.200 0.238 0.225 0.238 0.413 0.613 1.075 2.225 2.350 1.813 0.763 0.550 0.400 0.125 0.263 0.319 0.500 4.263 3.063 1.300 0.775 0.713 0.663 0.725 0.638 0.388 0.338 0.538 0.788 0.475 0.494 1.625 2.088 1.975 0.725]
New Loadshape.LoadProfileP40 npts=48 interval=0.5 mult=[0.349 0.298 0.447 2.382 2.405 2.365 2.367 1.967 0.124 0.110 0.121 0.156 0.115 0.594 1.611 0.482 0.430 0.452 2.416 0.540 1.834 1.111 1.173 1.130 1.619 1.825 0.985 0.989 0.998 1.013 1.153 1.086 1.907 1.005 0.927 1.336 0.389 0.370 0.352 0.447 0.336 0.337 0.365 0.370 0.350 0.359 0.364 0.224]
New Loadshape.LoadProfileP41 npts=48 interval=0.5 mult=[2.773 2.611 0.884 0.596 0.164 1.029 0.231 0.857 0.826 0.903 1.439 0.828 0.647 1.506 1.205 0.767 0.726 0.441 0.313 0.553 0.402 0.709 0.735 0.666 0.294 0.833 0.862 1.276 1.287 1.340 1.697 1.053 0.867 0.963 0.811 0.910 1.312 1.647 0.880 0.720 0.763 0.713 0.808 0.728 0.702 0.665 0.658 0.375]
New Loadshape.LoadProfileP42 npts=48 interval=0.5 mult=[1.619 0.957 0.850 0.880 0.813 0.788 0.799 0.789 0.793 0.132 0.088 0.103 0.109 0.087 0.104 1.007 0.901 0.341 0.405 0.354 0.234 0.562 0.774 1.450 2.333 2.076 1.795 1.105 0.901 0.774 0.778 1.524 2.027 0.758 0.777 0.930 0.892 1.660 2.044 1.285 0.769 0.757 0.778 0.731 0.817 0.835 0.792 1.767]
New Loadshape.LoadProfileP43 npts=48 interval=0.5 mult=[0.822 0.270 0.308 0.279 0.288 0.495 0.282 0.539 0.868 0.481 0.510 0.503 0.700 1.917 0.968 1.052 1.216 1.306 0.261 0.180 0.712 1.955 0.869 1.557 0.857 0.855 0.926 0.724 1.009 1.111 1.060 0.973 1.318 1.493 1.462 1.604 1.514 1.190 1.380 1.518 1.088 1.114 0.959 0.999 0.925 0.777 0.352 0.296]
New Loadshape.LoadProfileP44 npts=48 interval=0.5 mult=[0.850 0.850 0.838 0.863 0.838 0.938 1.138 1.138 1.150 1.138 1.163 1.138 1.175 1.125 0.906 0.863 0.813 0.881 0.825 0.863 0.838 0.875 0.813 0.863 0.875 0.825 0.875 0.850 0.875 0.825 0.856 0.825 0.813 0.863 0.813 0.850 0.813 0.863 0.813 0.850 0.850 0.825 0.875 0.825 0.850 0.838 0.894 0.825]
New Loadshape.LoadProfileP45 npts=48 interval=0.5 mult=[1.644 0.737 0.735 0.740 0.742 1.450 0.713 0.706 0.703 0.714 0.171 0.148 1.096 1.421 0.931 0.409 0.324 0.217 0.792 0.954 0.502 0.111 0.120 0.126 0.116 0.111 0.111 0.112 0.118 0.122 0.122 1.468 1.659 1.026 0.958 0.977 1.593 1.283 1.005 0.984 1.012 0.932 1.622 1.568 2.389 3.856 2.659 0.968]
New Loadshape.LoadProfileP46 npts=48 interval=0.5 mult=[0.594 0.154 0.201 0.934 1.047 1.090 1.092 0.384 0.601 0.520 0.211 0.157 1.721 1.874 2.037 2.157 1.928 2.775 0.537 0.153 0.164 0.189 0.144 0.146 0.195 0.149 0.915 0.177 2.123 2.900 1.746 1.691 1.666 1.697 1.671 1.724 0.937 0.459 0.986 0.293 0.272 0.293 0.316 0.342 0.353 0.249 0.245 0.345]
New Loadshape.LoadProfileP47 npts=48 interval=0.5 mult=[2.114 1.280 0.186 0.025 0.850 1.978 2.371 1.362 0.902 0.859 0.717 0.767 0.445 0.326 0.499 0.499 0.502 0.401 0.568 0.306 0.258 0.172 0.741 1.411 1.462 1.042 1.184 1.486 1.233 1.354 0.961 0.822 1.404 0.690 0.676 0.679 1.807 1.234 0.287 0.303 0.821 0.792 0.327 0.051 0.098 0.028 1.902 2.006]
New Loadshape.LoadProfileP48 npts=48 interval=0.5 mult=[0.938 0.950 2.839 2.872 2.918 2.763 2.240 0.372 0.353 0.546 0.918 0.941 0.986 0.493 0.365 0.401 0.302 0.162 0.185 0.191 0.664 0.480 0.250 0.232 0.208 0.237 0.193 0.255 0.275 0.274 0.206 0.221 0.208 0.241 0.326 1.612 1.738 1.739 1.430 0.713 0.743 0.653 0.638 0.936 1.460 1.487 1.521 1.448]
New Loadshape.LoadProfileP49 npts=48 interval=0.5 mult=[0.616 0.182 0.237 0.222 0.127 0.118 0.052 0.075 0.079 0.049 0.091 0.065 0.113 0.585 0.550 0.536 0.585 0.567 0.544 0.800 0.849 0.879 0.973 0.893 1.892 2.075 1.953 1.705 1.362 1.898 1.841 1.566 1.597 1.037 1.139 1.260 0.617 1.030 0.816 1.298 1.933 1.294 0.417 0.976 1.411 1.366 1.224 0.347]
New Loadshape.LoadProfileP50 npts=48 interval=0.5 mult=[1.939 1.920 0.407 0.135 0.118 0.128 0.126 1.126 0.917 0.382 0.405 0.347 0.397 0.384 0.293 0.323 1.385 0.275 1.844 1.246 0.648 1.215 1.002 2.879 0.758 0.367 0.813 1.164 2.548 1.310 1.343 1.342 1.322 0.744 0.500 0.620 0.424 0.411 0.724 0.808 0.866 0.383 0.365 0.372 0.273 0.284 2.114 2.139]
New Loadshape.LoadProfileP51 npts=48 interval=0.5 mult=[2.138 1.575 1.725 1.313 0.925 0.938 0.925 0.950 0.975 0.175 0.163 0.125 0.175 0.163 0.150 1.401 0.363 0.175 0.388 1.225 2.888 0.288 0.525 0.288 0.338 0.288 1.032 0.600 0.263 0.238 0.250 0.263 0.313 0.688 1.375 0.388 0.325 0.363 0.525 0.513 2.394 1.694 2.663 3.481 0.975 0.963 0.938 0.988]
New Loadshape.LoadProfileP52 npts=48 interval=0.5 mult=[3.001 3.146 3.060 1.192 1.339 0.741 0.744 0.769 1.492 0.779 0.738 0.745 0.739 0.748 0.755 0.955 2.132 1.675 0.775 0.702 0.886 0.654 0.641 0.609 0.669 0.141 0.170 0.131 0.080 0.083 0.088 0.083 0.135 0.101 0.221 0.530 0.326 0.463 0.294 0.356 0.276 0.280 0.488 0.952 0.950 0.860 1.649 3.164]
New Loadshape.LoadProfileP53 npts=48 interval=0.5 mult=[2.414 2.436 2.410 2.457 2.448 2.382 0.260 0.032 0.082 0.073 0.040 0.038 0.037 0.087 0.074 0.189 0.036 0.040 0.525 0.752 1.438 0.498 0.949 0.802 0.708 0.472 0.601 0.537 0.527 0.698 1.392 1.259 1.477 1.135 1.244 1.133 1.397 1.704 0.690 0.748 0.762 0.801 0.602 0.304 0.251 0.101 0.062 2.402]
New Loadshape.LoadProfileP54 npts=48 interval=0.5 mult=[2.486 2.409 2.443 2.433 1.015 0.613 0.609 0.627 0.449 0.124 0.070 0.114 0.137 1.917 0.480 0.123 0.232 0.526 0.688 0.316 0.356 0.196 0.352 0.952 0.898 0.922 0.469 0.427 0.326 0.333 0.324 0.276 0.591 0.509 0.324 2.412 1.897 1.588 1.560 1.518 1.503 1.454 0.953 0.150 0.110 0.192 0.602 2.160]
New Loadshape.LoadProfileP55 npts=48 interval=0.5 mult=[0.446 0.391 0.447 0.429 0.427 0.404 0.436 0.445 0.465 0.884 0.775 1.441 3.018 2.877 2.067 0.806 0.655 0.705 0.548 0.652 1.448 1.104 0.831 0.735 1.268 0.693 0.615 1.307 1.435 1.330 1.025 1.121 1.280 1.002 0.955 0.813 0.693 0.703 0.791 0.779 0.697 0.721 0.547 0.213 0.130 0.183 0.161 0.123]
New Loadshape.LoadProfileP56 npts=48 interval=0.5 mult=[0.310 0.443 0.274 0.265 0.571 0.206 0.648 0.643 0.617 1.649 1.667 1.564 1.620 1.666 1.537 2.184 1.651 1.182 0.896 0.258 0.178 0.103 0.102 0.105 0.111 0.098 0.104 1.053 2.402 2.244 2.202 2.202 2.211 1.203 1.014 0.529 0.321 0.279 0.241 0.176 0.188 0.203 0.266 0.201 0.149 0.152 1.095 1.441]
New Loadshape.LoadProfileP57 npts=48 interval=0.5 mult=[0.188 0.210 0.120 0.118 0.050 0.128 0.120 0.045 0.128 0.128 0.044 0.114 0.124 0.629 1.319 1.364 1.307 1.289 1.429 1.341 1.312 1.281 1.375 1.366 1.389 1.377 1.381 1.306 1.320 1.256 1.346 1.384 1.419 1.405 1.339 1.388 1.384 1.340 1.363 1.391 1.103 0.692 0.556 0.110 0.054 0.130 0.120 0.042]
New Loadshape.LoadProfileP58 npts=48 interval=0.5 mult=[0.263 0.225 0.350 0.263 0.300 0.213 0.250 0.250 0.214 0.263 0.225 0.238 0.225 0.213 0.250 0.200 0.225 0.238 0.400 0.400 3.075 2.188 0.350 0.513 0.488 0.500 0.500 0.800 0.563 0.788 3.200 1.863 1.738 1.401 1.750 2.263 1.813 1.750 0.875 1.475 1.188 1.639 1.550 1.000 0.538 0.575 0.238 0.263]
New Loadshape.LoadProfileP59 npts=48 interval=0.5 mult=[0.116 0.110 0.739 0.098 0.100 0.120 0.149 0.123 0.130 0.096 0.141 0.066 0.129 0.423 1.058 2.261 1.080 1.603 2.241 1.581 1.586 1.573 1.769 2.720 1.055 1.331 1.721 0.600 1.555 0.996 0.276 0.340 1.291 1.239 0.875 0.764 0.798 0.767 0.763 0.731 1.903 0.689 0.709 1.115 0.128 0.116 0.110 0.123]
New Loadshape.LoadProfileP60 npts=48 interval=0.5 mult=[0.726 2.138 2.076 2.116 1.728 0.118 0.156 0.129 0.144 0.146 0.186 0.201 0.116 0.156 0.115 0.156 0.344 0.306 0.392 0.163 0.265 0.202 0.287 0.224 0.427 0.383 0.687 1.433 1.408 1.577 1.402 1.448 1.394 1.411 1.730 1.514 1.397 1.366 1.567 1.360 1.333 1.353 1.357 1.326 0.954 0.279 0.190 0.118]
New Loadshape.LoadProfileP61 npts=48 interval=0.5 mult=[0.747 0.172 0.124 1.716 0.149 0.923 0.294 0.155 0.122 1.142 0.130 0.127 0.176 0.097 0.892 1.262 1.272 1.357 2.592 1.532 1.615 0.596 1.008 0.173 0.108 1.134 1.431 0.690 1.523 0.638 0.748 1.597 2.048 1.819 1.025 0.659 0.641 0.648 0.572 0.636 0.594 0.590 0.606 0.511 0.206 0.181 0.833 2.151]
New Loadshape.LoadProfileP62 npts=48 interval=0.5 mult=[1.029 0.900 0.756 0.684 0.700 0.713 0.701 0.769 0.752 0.730 0.727 0.711 1.020 2.292 0.709 0.730 0.730 0.705 0.729 0.711 0.334 0.225 0.189 1.013 0.486 0.923 0.653 0.663 0.614 0.553 0.641 1.124 0.722 0.805 0.327 0.351 0.513 0.324 0.194 0.594 0.671 0.913 2.726 2.752 1.399 0.969 0.989 1.400]
New Loadshape.LoadProfileP63 npts=48 interval=0.5 mult=[0.153 0.169 0.154 0.171 0.162 0.153 0.178 0.154 0.174 0.445 0.168 0.159 0.131 0.144 0.401 0.583 0.369 0.251 0.336 0.430 1.187 1.110 1.174 1.272 1.166 1.178 1.167 2.626 2.613 2.436 2.266 2.235 1.204 0.464 0.682 0.859 0.695 0.528 0.920 0.954 0.782 0.744 0.273 1.333 2.026 2.029 0.883 0.127]
