Clear

New Circuit.B  bus1=51.1.2.3.4 pu=1.0 basekV=0.433 

Set DefaultBaseFrequency=50
set earthmodel=Carson

!Redirect new_transformer.txt
Redirect new_linecode.txt
Redirect new_line.txt
Redirect new_load.txt
Redirect new_reactor.txt

Set Voltagebases=[0.433]

Calcvoltagebases


Solve